6
Properties=species:S:1:pos:R:3:forces:R:3 XYZ=T from=T PySCF=T energy=-56.09346438374919 pbc="F F F"
C        0.00000000       0.00000000       0.00000000      -0.01089809       0.00000014      -0.00000000
H        0.24641427       1.06593212      -0.00000000       0.00590815      -0.00657056       0.00000000
H        0.24641443      -0.53296634       0.92312363       0.00590823       0.00328514      -0.00569021
H        0.24641443      -0.53296634      -0.92312363       0.00590823       0.00328514       0.00569021
F       -1.50870488       0.00000377      -0.00000000      -0.00777939      -0.00000031      -0.00000000
F        2.28258670       0.00001679       0.00000000       0.00094912       0.00000244       0.00000000
