6
Properties=species:S:1:pos:R:3:forces:R:3 XYZ=T from=T PySCF=T energy=-56.08908711140156 pbc="F F F"
C        0.00000000       0.00000000       0.00000000       0.01749554      -0.00000211      -0.00000000
H       -0.11896596       1.07483063       0.00000000      -0.00528716      -0.00058930       0.00000000
H       -0.11896276      -0.53741758       0.93083074      -0.00528640       0.00029481      -0.00051056
H       -0.11896276      -0.53741758      -0.93083074      -0.00528640       0.00029481       0.00051056
F       -2.06231758       0.00001196      -0.00000000       0.00068022       0.00000040       0.00000000
F        1.67175899       0.00000414      -0.00000000      -0.00231236       0.00000076       0.00000000
