4
Properties=species:S:1:pos:R:3:forces:R:3 XYZ=T from=T PySCF=T energy=-11.721983897887627 pbc="F F F"
N        0.00000000       0.00000000       0.00000000      -0.01880564      -0.00000014      -0.00000000
H        0.19234365       0.97980950       0.00000000       0.00626842       0.00689406       0.00000000
H        0.19234394      -0.48990476       0.84853983       0.00626868      -0.00344704       0.00597038
H        0.19234394      -0.48990476      -0.84853983       0.00626868      -0.00344704      -0.00597038
