6
Properties=species:S:1:pos:R:3:forces:R:3 XYZ=T from=T PySCF=T energy=-56.08672958882905 pbc="F F F"
C        0.00000000       0.00000000       0.00000000      -0.00000000       0.00000018       0.00000000
H        0.00000000       1.07556873       0.00000000       0.00000000       0.00286898       0.00000000
H        0.00000000      -0.53778470       0.93146916       0.00000000      -0.00143463       0.00248462
H        0.00000000      -0.53778470      -0.93146916       0.00000000      -0.00143463      -0.00248462
F       -1.86319157       0.00000253       0.00000000       0.00349397      -0.00000015      -0.00000000
F        1.86319157       0.00000253      -0.00000000      -0.00349397      -0.00000015       0.00000000
