4
Properties=species:S:1:pos:R:3:forces:R:3 XYZ=T from=T PySCF=T energy=-11.718750680597928 pbc="F F F"
N        0.00000000       0.00000000       0.00000000       0.00000000       0.00000000       0.00000000
H       -0.00000000       0.99748286      -0.00000000      -0.00000000       0.00495514      -0.00000000
H        0.00000000      -0.49874153       0.86384537       0.00000000      -0.00247772       0.00429123
H        0.00000000      -0.49874153      -0.86384537      -0.00000000      -0.00247772      -0.00429123
