4
Properties=species:S:1:pos:R:3:forces:R:3 XYZ=T from=T PySCF=T energy=-11.70777683712623 pbc="F F F"
N        0.05562326      -0.00000000       0.00000000      -0.00057825       0.00000000      -0.00000000
H        0.43782891       0.93465355       0.00000000       0.00019275       0.00037034       0.00000000
H        0.43782891      -0.46732678       0.80943372       0.00019275      -0.00018517       0.00032073
H        0.43782891      -0.46732678      -0.80943372       0.00019275      -0.00018517      -0.00032073
