6
XYZ from PySCF
C        0.00000000       0.00000000       0.00000000
H       -0.37781973       1.02651312       0.00000000
H       -0.37781973      -0.51325656       0.88898644
H       -0.37781973      -0.51325656      -0.88898644
F       -2.57500000       0.00000000       0.00000000
F        1.43400000       0.00000000       0.00000000
