6
Properties=species:S:1:pos:R:3:forces:R:3 XYZ=T from=T PySCF=T energy=-55.98506364645858 pbc="F F F"
C        0.00000000       0.00000000       0.00000000       0.00655310      -0.00000000      -0.00000000
H       -0.34772469       1.02143455       0.00000000      -0.00079978       0.00007305       0.00000000
H       -0.34772469      -0.51071728       0.88458827      -0.00079978      -0.00003652       0.00006326
H       -0.34772469      -0.51071728      -0.88458827      -0.00079978      -0.00003652      -0.00006326
F       -2.57500000       0.00000000       0.00000000       0.00271370       0.00000000       0.00000000
F        1.43400000       0.00000000       0.00000000      -0.00686745       0.00000000       0.00000000
