4
Properties=species:S:1:pos:R:3:forces:R:3 XYZ=T from=T PySCF=T energy=-11.698696270117765 pbc="F F F"
N        0.00000000       0.00000000       0.00000000      -0.00000000       0.00000000      -0.00000000
H        0.00000000       0.99013452       0.00000000       0.00000000       0.00342086       0.00000000
H       -0.00000000      -0.49506726       0.85748165       0.00000000      -0.00171043       0.00296255
H       -0.00000000      -0.49506726      -0.85748165       0.00000000      -0.00171043      -0.00296255
